<configuration>
	<input>
	<net-file value="cross.net.xml"/>
	<route-files value="input_routes.rou.xml"/>
	<additional-files value="cross.add.xml"/>
	</input>
	<time>
	<begin value="0"/>
	<end value="2000"/>
	</time>
</configuration>