<routes xmlns:xsi="http://www.w3.org/2001/XMLSchema-instance" xsi:noNamespaceSchemaLocation="http://sumo.dlr.de/xsd/routes_file.xsd">
    <vType id="SUMO_DEFAULT_TYPE" accel="0.8" decel="4.5" sigma="0" length="5" minGap="2" maxSpeed="70"/>
    
	<route id="left_1" edges="1si 4o"/>
	<route id="left_2" edges="1si 2o"/>
	<route id="left_3" edges="1si 3o"/>
	
	<route id="top_1" edges="4si 1o"/>
	<route id="top_2" edges="4si 2o"/>
	<route id="top_3" edges="4si 3o"/>
	
	<route id="down_1" edges="3si 1o"/>
	<route id="down_2" edges="3si 2o"/>
	<route id="down_3" edges="3si 4o"/>
	
	<route id="right_1" edges="2si 1o"/>
	<route id="right_2" edges="2si 3o"/>
	<route id="right_3" edges="2si 4o"/>
    
    <vehicle id="vehicle_0" type="SUMO_DEFAULT_TYPE" route="left_1" depart="0" />
    <vehicle id="vehicle_1" type="SUMO_DEFAULT_TYPE" route="down_1" depart="0" />
    <vehicle id="vehicle_2" type="SUMO_DEFAULT_TYPE" route="top_1" depart="0" />
    <vehicle id="vehicle_3" type="SUMO_DEFAULT_TYPE" route="left_3" depart="9" />
    <vehicle id="vehicle_4" type="SUMO_DEFAULT_TYPE" route="left_3" depart="12" />
    <vehicle id="vehicle_5" type="SUMO_DEFAULT_TYPE" route="right_1" depart="12" />
    <vehicle id="vehicle_6" type="SUMO_DEFAULT_TYPE" route="left_1" depart="18" />
    <vehicle id="vehicle_7" type="SUMO_DEFAULT_TYPE" route="top_1" depart="18" />
    <vehicle id="vehicle_8" type="SUMO_DEFAULT_TYPE" route="left_3" depart="24" />
    <vehicle id="vehicle_9" type="SUMO_DEFAULT_TYPE" route="top_3" depart="24" />
    <vehicle id="vehicle_10" type="SUMO_DEFAULT_TYPE" route="right_1" depart="24" />
    <vehicle id="vehicle_11" type="SUMO_DEFAULT_TYPE" route="right_3" depart="24" />
    <vehicle id="vehicle_12" type="SUMO_DEFAULT_TYPE" route="down_1" depart="24" />
    <vehicle id="vehicle_13" type="SUMO_DEFAULT_TYPE" route="top_3" depart="24" />
    <vehicle id="vehicle_14" type="SUMO_DEFAULT_TYPE" route="right_2" depart="24" />
    <vehicle id="vehicle_15" type="SUMO_DEFAULT_TYPE" route="down_1" depart="24" />
    <vehicle id="vehicle_16" type="SUMO_DEFAULT_TYPE" route="top_2" depart="24" />
    <vehicle id="vehicle_17" type="SUMO_DEFAULT_TYPE" route="left_1" depart="51" />
    <vehicle id="vehicle_18" type="SUMO_DEFAULT_TYPE" route="right_1" depart="51" />
    <vehicle id="vehicle_19" type="SUMO_DEFAULT_TYPE" route="down_2" depart="51" />
    <vehicle id="vehicle_20" type="SUMO_DEFAULT_TYPE" route="down_1" depart="51" />
    <vehicle id="vehicle_21" type="SUMO_DEFAULT_TYPE" route="right_3" depart="51" />
    <vehicle id="vehicle_22" type="SUMO_DEFAULT_TYPE" route="left_2" depart="66" />
    <vehicle id="vehicle_23" type="SUMO_DEFAULT_TYPE" route="left_3" depart="69" />
    <vehicle id="vehicle_24" type="SUMO_DEFAULT_TYPE" route="down_3" depart="69" />
    <vehicle id="vehicle_25" type="SUMO_DEFAULT_TYPE" route="down_3" depart="69" />
    <vehicle id="vehicle_26" type="SUMO_DEFAULT_TYPE" route="top_3" depart="69" />
    <vehicle id="vehicle_27" type="SUMO_DEFAULT_TYPE" route="left_1" depart="81" />
    <vehicle id="vehicle_28" type="SUMO_DEFAULT_TYPE" route="top_2" depart="81" />
    <vehicle id="vehicle_29" type="SUMO_DEFAULT_TYPE" route="left_1" depart="87" />
    <vehicle id="vehicle_30" type="SUMO_DEFAULT_TYPE" route="left_2" depart="90" />
    <vehicle id="vehicle_31" type="SUMO_DEFAULT_TYPE" route="down_2" depart="90" />
    <vehicle id="vehicle_32" type="SUMO_DEFAULT_TYPE" route="down_1" depart="90" />
    <vehicle id="vehicle_33" type="SUMO_DEFAULT_TYPE" route="down_2" depart="90" />
    <vehicle id="vehicle_34" type="SUMO_DEFAULT_TYPE" route="top_3" depart="90" />
    <vehicle id="vehicle_35" type="SUMO_DEFAULT_TYPE" route="down_3" depart="90" />
    <vehicle id="vehicle_36" type="SUMO_DEFAULT_TYPE" route="left_3" depart="108" />
    <vehicle id="vehicle_37" type="SUMO_DEFAULT_TYPE" route="top_3" depart="108" />
    <vehicle id="vehicle_38" type="SUMO_DEFAULT_TYPE" route="top_1" depart="108" />
    <vehicle id="vehicle_39" type="SUMO_DEFAULT_TYPE" route="right_2" depart="108" />
    <vehicle id="vehicle_40" type="SUMO_DEFAULT_TYPE" route="down_3" depart="108" />
    <vehicle id="vehicle_41" type="SUMO_DEFAULT_TYPE" route="top_3" depart="108" />
    <vehicle id="vehicle_42" type="SUMO_DEFAULT_TYPE" route="down_1" depart="108" />
    <vehicle id="vehicle_43" type="SUMO_DEFAULT_TYPE" route="top_1" depart="108" />
    <vehicle id="vehicle_44" type="SUMO_DEFAULT_TYPE" route="down_2" depart="108" />
    <vehicle id="vehicle_45" type="SUMO_DEFAULT_TYPE" route="down_1" depart="108" />
    <vehicle id="vehicle_46" type="SUMO_DEFAULT_TYPE" route="top_3" depart="108" />
    <vehicle id="vehicle_47" type="SUMO_DEFAULT_TYPE" route="down_1" depart="108" />
    <vehicle id="vehicle_48" type="SUMO_DEFAULT_TYPE" route="right_2" depart="108" />
    <vehicle id="vehicle_49" type="SUMO_DEFAULT_TYPE" route="right_1" depart="108" />
    <vehicle id="vehicle_50" type="SUMO_DEFAULT_TYPE" route="down_1" depart="108" />
    <vehicle id="vehicle_51" type="SUMO_DEFAULT_TYPE" route="top_3" depart="108" />
    <vehicle id="vehicle_52" type="SUMO_DEFAULT_TYPE" route="down_3" depart="108" />
    <vehicle id="vehicle_53" type="SUMO_DEFAULT_TYPE" route="right_3" depart="108" />
    <vehicle id="vehicle_54" type="SUMO_DEFAULT_TYPE" route="right_2" depart="108" />
    <vehicle id="vehicle_55" type="SUMO_DEFAULT_TYPE" route="top_1" depart="108" />
    <vehicle id="vehicle_56" type="SUMO_DEFAULT_TYPE" route="right_1" depart="108" />
    <vehicle id="vehicle_57" type="SUMO_DEFAULT_TYPE" route="left_1" depart="171" />
    <vehicle id="vehicle_58" type="SUMO_DEFAULT_TYPE" route="top_3" depart="171" />
    <vehicle id="vehicle_59" type="SUMO_DEFAULT_TYPE" route="top_3" depart="171" />
    <vehicle id="vehicle_60" type="SUMO_DEFAULT_TYPE" route="right_3" depart="171" />
    <vehicle id="vehicle_61" type="SUMO_DEFAULT_TYPE" route="left_2" depart="183" />
    <vehicle id="vehicle_62" type="SUMO_DEFAULT_TYPE" route="right_3" depart="183" />
    <vehicle id="vehicle_63" type="SUMO_DEFAULT_TYPE" route="right_3" depart="183" />
    <vehicle id="vehicle_64" type="SUMO_DEFAULT_TYPE" route="down_3" depart="183" />
    <vehicle id="vehicle_65" type="SUMO_DEFAULT_TYPE" route="left_3" depart="195" />
    <vehicle id="vehicle_66" type="SUMO_DEFAULT_TYPE" route="left_3" depart="198" />
    <vehicle id="vehicle_67" type="SUMO_DEFAULT_TYPE" route="down_3" depart="198" />
    <vehicle id="vehicle_68" type="SUMO_DEFAULT_TYPE" route="down_1" depart="198" />
    <vehicle id="vehicle_69" type="SUMO_DEFAULT_TYPE" route="down_2" depart="198" />
    <vehicle id="vehicle_70" type="SUMO_DEFAULT_TYPE" route="top_2" depart="198" />
    <vehicle id="vehicle_71" type="SUMO_DEFAULT_TYPE" route="left_3" depart="213" />
    <vehicle id="vehicle_72" type="SUMO_DEFAULT_TYPE" route="down_3" depart="213" />
    <vehicle id="vehicle_73" type="SUMO_DEFAULT_TYPE" route="top_3" depart="213" />
    <vehicle id="vehicle_74" type="SUMO_DEFAULT_TYPE" route="left_3" depart="222" />
    <vehicle id="vehicle_75" type="SUMO_DEFAULT_TYPE" route="down_3" depart="222" />
    <vehicle id="vehicle_76" type="SUMO_DEFAULT_TYPE" route="top_1" depart="222" />
    <vehicle id="vehicle_77" type="SUMO_DEFAULT_TYPE" route="down_1" depart="222" />
    <vehicle id="vehicle_78" type="SUMO_DEFAULT_TYPE" route="left_3" depart="234" />
    <vehicle id="vehicle_79" type="SUMO_DEFAULT_TYPE" route="down_2" depart="234" />
    <vehicle id="vehicle_80" type="SUMO_DEFAULT_TYPE" route="left_1" depart="240" />
    <vehicle id="vehicle_81" type="SUMO_DEFAULT_TYPE" route="down_2" depart="240" />
    <vehicle id="vehicle_82" type="SUMO_DEFAULT_TYPE" route="top_1" depart="240" />
    <vehicle id="vehicle_83" type="SUMO_DEFAULT_TYPE" route="top_3" depart="240" />
    <vehicle id="vehicle_84" type="SUMO_DEFAULT_TYPE" route="left_1" depart="252" />
    <vehicle id="vehicle_85" type="SUMO_DEFAULT_TYPE" route="right_1" depart="252" />
    <vehicle id="vehicle_86" type="SUMO_DEFAULT_TYPE" route="top_1" depart="252" />
    <vehicle id="vehicle_87" type="SUMO_DEFAULT_TYPE" route="right_3" depart="252" />
    <vehicle id="vehicle_88" type="SUMO_DEFAULT_TYPE" route="top_2" depart="252" />
    <vehicle id="vehicle_89" type="SUMO_DEFAULT_TYPE" route="right_1" depart="252" />
    <vehicle id="vehicle_90" type="SUMO_DEFAULT_TYPE" route="top_3" depart="252" />
    <vehicle id="vehicle_91" type="SUMO_DEFAULT_TYPE" route="down_2" depart="252" />
    <vehicle id="vehicle_92" type="SUMO_DEFAULT_TYPE" route="down_2" depart="252" />
    <vehicle id="vehicle_93" type="SUMO_DEFAULT_TYPE" route="right_1" depart="252" />
    <vehicle id="vehicle_94" type="SUMO_DEFAULT_TYPE" route="top_1" depart="252" />
    <vehicle id="vehicle_95" type="SUMO_DEFAULT_TYPE" route="left_2" depart="285" />
    <vehicle id="vehicle_96" type="SUMO_DEFAULT_TYPE" route="left_3" depart="288" />
    <vehicle id="vehicle_97" type="SUMO_DEFAULT_TYPE" route="top_3" depart="288" />
    <vehicle id="vehicle_98" type="SUMO_DEFAULT_TYPE" route="top_1" depart="288" />
    <vehicle id="vehicle_99" type="SUMO_DEFAULT_TYPE" route="left_3" depart="297" />
    <vehicle id="vehicle_100" type="SUMO_DEFAULT_TYPE" route="left_1" depart="300" />
    <vehicle id="vehicle_101" type="SUMO_DEFAULT_TYPE" route="left_1" depart="303" />
    <vehicle id="vehicle_102" type="SUMO_DEFAULT_TYPE" route="down_1" depart="303" />
    <vehicle id="vehicle_103" type="SUMO_DEFAULT_TYPE" route="top_2" depart="303" />
    <vehicle id="vehicle_104" type="SUMO_DEFAULT_TYPE" route="right_1" depart="303" />
    <vehicle id="vehicle_105" type="SUMO_DEFAULT_TYPE" route="top_3" depart="303" />
    <vehicle id="vehicle_106" type="SUMO_DEFAULT_TYPE" route="right_1" depart="303" />
    <vehicle id="vehicle_107" type="SUMO_DEFAULT_TYPE" route="right_2" depart="303" />
    <vehicle id="vehicle_108" type="SUMO_DEFAULT_TYPE" route="top_1" depart="303" />
    <vehicle id="vehicle_109" type="SUMO_DEFAULT_TYPE" route="left_3" depart="327" />
    <vehicle id="vehicle_110" type="SUMO_DEFAULT_TYPE" route="right_2" depart="327" />
    <vehicle id="vehicle_111" type="SUMO_DEFAULT_TYPE" route="right_2" depart="327" />
    <vehicle id="vehicle_112" type="SUMO_DEFAULT_TYPE" route="right_3" depart="327" />
    <vehicle id="vehicle_113" type="SUMO_DEFAULT_TYPE" route="left_3" depart="339" />
    <vehicle id="vehicle_114" type="SUMO_DEFAULT_TYPE" route="left_1" depart="342" />
    <vehicle id="vehicle_115" type="SUMO_DEFAULT_TYPE" route="right_3" depart="342" />
    <vehicle id="vehicle_116" type="SUMO_DEFAULT_TYPE" route="down_1" depart="342" />
    <vehicle id="vehicle_117" type="SUMO_DEFAULT_TYPE" route="top_1" depart="342" />
    <vehicle id="vehicle_118" type="SUMO_DEFAULT_TYPE" route="top_3" depart="342" />
    <vehicle id="vehicle_119" type="SUMO_DEFAULT_TYPE" route="right_1" depart="342" />
    <vehicle id="vehicle_120" type="SUMO_DEFAULT_TYPE" route="right_1" depart="342" />
    <vehicle id="vehicle_121" type="SUMO_DEFAULT_TYPE" route="down_2" depart="342" />
    <vehicle id="vehicle_122" type="SUMO_DEFAULT_TYPE" route="top_1" depart="342" />
    <vehicle id="vehicle_123" type="SUMO_DEFAULT_TYPE" route="right_3" depart="342" />
    <vehicle id="vehicle_124" type="SUMO_DEFAULT_TYPE" route="left_1" depart="372" />
    <vehicle id="vehicle_125" type="SUMO_DEFAULT_TYPE" route="left_1" depart="375" />
    <vehicle id="vehicle_126" type="SUMO_DEFAULT_TYPE" route="top_1" depart="375" />
    <vehicle id="vehicle_127" type="SUMO_DEFAULT_TYPE" route="right_2" depart="375" />
    <vehicle id="vehicle_128" type="SUMO_DEFAULT_TYPE" route="right_1" depart="375" />
    <vehicle id="vehicle_129" type="SUMO_DEFAULT_TYPE" route="right_1" depart="375" />
    <vehicle id="vehicle_130" type="SUMO_DEFAULT_TYPE" route="top_2" depart="375" />
    <vehicle id="vehicle_131" type="SUMO_DEFAULT_TYPE" route="left_2" depart="393" />
    <vehicle id="vehicle_132" type="SUMO_DEFAULT_TYPE" route="down_2" depart="393" />
    <vehicle id="vehicle_133" type="SUMO_DEFAULT_TYPE" route="down_2" depart="393" />
    <vehicle id="vehicle_134" type="SUMO_DEFAULT_TYPE" route="right_1" depart="393" />
    <vehicle id="vehicle_135" type="SUMO_DEFAULT_TYPE" route="top_2" depart="393" />
    <vehicle id="vehicle_136" type="SUMO_DEFAULT_TYPE" route="top_1" depart="393" />
    <vehicle id="vehicle_137" type="SUMO_DEFAULT_TYPE" route="left_3" depart="411" />
    <vehicle id="vehicle_138" type="SUMO_DEFAULT_TYPE" route="down_1" depart="411" />
    <vehicle id="vehicle_139" type="SUMO_DEFAULT_TYPE" route="left_3" depart="417" />
    <vehicle id="vehicle_140" type="SUMO_DEFAULT_TYPE" route="right_3" depart="417" />
    <vehicle id="vehicle_141" type="SUMO_DEFAULT_TYPE" route="top_1" depart="417" />
    <vehicle id="vehicle_142" type="SUMO_DEFAULT_TYPE" route="left_1" depart="426" />
    <vehicle id="vehicle_143" type="SUMO_DEFAULT_TYPE" route="left_3" depart="429" />
    <vehicle id="vehicle_144" type="SUMO_DEFAULT_TYPE" route="left_3" depart="432" />
    <vehicle id="vehicle_145" type="SUMO_DEFAULT_TYPE" route="top_2" depart="432" />
    <vehicle id="vehicle_146" type="SUMO_DEFAULT_TYPE" route="left_3" depart="438" />
    <vehicle id="vehicle_147" type="SUMO_DEFAULT_TYPE" route="top_3" depart="438" />
    <vehicle id="vehicle_148" type="SUMO_DEFAULT_TYPE" route="left_3" depart="444" />
    <vehicle id="vehicle_149" type="SUMO_DEFAULT_TYPE" route="left_2" depart="447" />
    <vehicle id="vehicle_150" type="SUMO_DEFAULT_TYPE" route="down_2" depart="447" />
    <vehicle id="vehicle_151" type="SUMO_DEFAULT_TYPE" route="top_3" depart="447" />
    <vehicle id="vehicle_152" type="SUMO_DEFAULT_TYPE" route="down_1" depart="447" />
    <vehicle id="vehicle_153" type="SUMO_DEFAULT_TYPE" route="down_2" depart="447" />
    <vehicle id="vehicle_154" type="SUMO_DEFAULT_TYPE" route="top_3" depart="447" />
    <vehicle id="vehicle_155" type="SUMO_DEFAULT_TYPE" route="down_2" depart="447" />
    <vehicle id="vehicle_156" type="SUMO_DEFAULT_TYPE" route="down_1" depart="447" />
    <vehicle id="vehicle_157" type="SUMO_DEFAULT_TYPE" route="left_2" depart="471" />
    <vehicle id="vehicle_158" type="SUMO_DEFAULT_TYPE" route="left_1" depart="474" />
    <vehicle id="vehicle_159" type="SUMO_DEFAULT_TYPE" route="top_3" depart="474" />
    <vehicle id="vehicle_160" type="SUMO_DEFAULT_TYPE" route="down_1" depart="474" />
    <vehicle id="vehicle_161" type="SUMO_DEFAULT_TYPE" route="down_1" depart="474" />
    <vehicle id="vehicle_162" type="SUMO_DEFAULT_TYPE" route="top_2" depart="474" />
    <vehicle id="vehicle_163" type="SUMO_DEFAULT_TYPE" route="down_1" depart="474" />
    <vehicle id="vehicle_164" type="SUMO_DEFAULT_TYPE" route="right_3" depart="474" />
    <vehicle id="vehicle_165" type="SUMO_DEFAULT_TYPE" route="down_3" depart="474" />
    <vehicle id="vehicle_166" type="SUMO_DEFAULT_TYPE" route="left_3" depart="498" />
    <vehicle id="vehicle_167" type="SUMO_DEFAULT_TYPE" route="down_3" depart="498" />
    <vehicle id="vehicle_168" type="SUMO_DEFAULT_TYPE" route="left_1" depart="504" />
    <vehicle id="vehicle_169" type="SUMO_DEFAULT_TYPE" route="down_1" depart="504" />
    <vehicle id="vehicle_170" type="SUMO_DEFAULT_TYPE" route="left_3" depart="510" />
    <vehicle id="vehicle_171" type="SUMO_DEFAULT_TYPE" route="top_2" depart="510" />
    <vehicle id="vehicle_172" type="SUMO_DEFAULT_TYPE" route="down_3" depart="510" />
    <vehicle id="vehicle_173" type="SUMO_DEFAULT_TYPE" route="top_3" depart="510" />
    <vehicle id="vehicle_174" type="SUMO_DEFAULT_TYPE" route="down_1" depart="510" />
    <vehicle id="vehicle_175" type="SUMO_DEFAULT_TYPE" route="down_3" depart="510" />
    <vehicle id="vehicle_176" type="SUMO_DEFAULT_TYPE" route="right_2" depart="510" />
    <vehicle id="vehicle_177" type="SUMO_DEFAULT_TYPE" route="left_1" depart="531" />
    <vehicle id="vehicle_178" type="SUMO_DEFAULT_TYPE" route="right_2" depart="531" />
    <vehicle id="vehicle_179" type="SUMO_DEFAULT_TYPE" route="left_1" depart="537" />
    <vehicle id="vehicle_180" type="SUMO_DEFAULT_TYPE" route="down_1" depart="537" />
    <vehicle id="vehicle_181" type="SUMO_DEFAULT_TYPE" route="down_1" depart="537" />
    <vehicle id="vehicle_182" type="SUMO_DEFAULT_TYPE" route="right_3" depart="537" />
    <vehicle id="vehicle_183" type="SUMO_DEFAULT_TYPE" route="right_3" depart="537" />
    <vehicle id="vehicle_184" type="SUMO_DEFAULT_TYPE" route="left_1" depart="552" />
    <vehicle id="vehicle_185" type="SUMO_DEFAULT_TYPE" route="left_3" depart="555" />
    <vehicle id="vehicle_186" type="SUMO_DEFAULT_TYPE" route="top_3" depart="555" />
    <vehicle id="vehicle_187" type="SUMO_DEFAULT_TYPE" route="left_2" depart="561" />
    <vehicle id="vehicle_188" type="SUMO_DEFAULT_TYPE" route="top_2" depart="561" />
    <vehicle id="vehicle_189" type="SUMO_DEFAULT_TYPE" route="top_1" depart="561" />
    <vehicle id="vehicle_190" type="SUMO_DEFAULT_TYPE" route="down_2" depart="561" />
    <vehicle id="vehicle_191" type="SUMO_DEFAULT_TYPE" route="left_2" depart="573" />
    <vehicle id="vehicle_192" type="SUMO_DEFAULT_TYPE" route="top_3" depart="573" />
    <vehicle id="vehicle_193" type="SUMO_DEFAULT_TYPE" route="top_3" depart="573" />
    <vehicle id="vehicle_194" type="SUMO_DEFAULT_TYPE" route="left_2" depart="582" />
    <vehicle id="vehicle_195" type="SUMO_DEFAULT_TYPE" route="right_3" depart="582" />
    <vehicle id="vehicle_196" type="SUMO_DEFAULT_TYPE" route="top_1" depart="582" />
    <vehicle id="vehicle_197" type="SUMO_DEFAULT_TYPE" route="top_1" depart="582" />
    <vehicle id="vehicle_198" type="SUMO_DEFAULT_TYPE" route="right_1" depart="582" />
    <vehicle id="vehicle_199" type="SUMO_DEFAULT_TYPE" route="top_3" depart="582" />
    <vehicle id="vehicle_200" type="SUMO_DEFAULT_TYPE" route="down_2" depart="582" />
    <vehicle id="vehicle_201" type="SUMO_DEFAULT_TYPE" route="top_2" depart="582" />
    <vehicle id="vehicle_202" type="SUMO_DEFAULT_TYPE" route="top_3" depart="582" />
    <vehicle id="vehicle_203" type="SUMO_DEFAULT_TYPE" route="left_2" depart="609" />
    <vehicle id="vehicle_204" type="SUMO_DEFAULT_TYPE" route="left_2" depart="612" />
    <vehicle id="vehicle_205" type="SUMO_DEFAULT_TYPE" route="top_1" depart="612" />
    <vehicle id="vehicle_206" type="SUMO_DEFAULT_TYPE" route="right_2" depart="612" />
    <vehicle id="vehicle_207" type="SUMO_DEFAULT_TYPE" route="down_1" depart="612" />
    <vehicle id="vehicle_208" type="SUMO_DEFAULT_TYPE" route="top_1" depart="612" />
    <vehicle id="vehicle_209" type="SUMO_DEFAULT_TYPE" route="top_2" depart="612" />
    <vehicle id="vehicle_210" type="SUMO_DEFAULT_TYPE" route="down_2" depart="612" />
    <vehicle id="vehicle_211" type="SUMO_DEFAULT_TYPE" route="left_2" depart="633" />
    <vehicle id="vehicle_212" type="SUMO_DEFAULT_TYPE" route="down_3" depart="633" />
    <vehicle id="vehicle_213" type="SUMO_DEFAULT_TYPE" route="right_3" depart="633" />
    <vehicle id="vehicle_214" type="SUMO_DEFAULT_TYPE" route="down_1" depart="633" />
    <vehicle id="vehicle_215" type="SUMO_DEFAULT_TYPE" route="left_2" depart="645" />
    <vehicle id="vehicle_216" type="SUMO_DEFAULT_TYPE" route="top_3" depart="645" />
    <vehicle id="vehicle_217" type="SUMO_DEFAULT_TYPE" route="down_1" depart="645" />
    <vehicle id="vehicle_218" type="SUMO_DEFAULT_TYPE" route="left_3" depart="654" />
    <vehicle id="vehicle_219" type="SUMO_DEFAULT_TYPE" route="right_2" depart="654" />
    <vehicle id="vehicle_220" type="SUMO_DEFAULT_TYPE" route="down_2" depart="654" />
    <vehicle id="vehicle_221" type="SUMO_DEFAULT_TYPE" route="left_2" depart="663" />
    <vehicle id="vehicle_222" type="SUMO_DEFAULT_TYPE" route="top_2" depart="663" />
    <vehicle id="vehicle_223" type="SUMO_DEFAULT_TYPE" route="left_3" depart="669" />
    <vehicle id="vehicle_224" type="SUMO_DEFAULT_TYPE" route="right_1" depart="669" />
    <vehicle id="vehicle_225" type="SUMO_DEFAULT_TYPE" route="top_2" depart="669" />
    <vehicle id="vehicle_226" type="SUMO_DEFAULT_TYPE" route="right_1" depart="669" />
    <vehicle id="vehicle_227" type="SUMO_DEFAULT_TYPE" route="down_3" depart="669" />
    <vehicle id="vehicle_228" type="SUMO_DEFAULT_TYPE" route="down_3" depart="669" />
    <vehicle id="vehicle_229" type="SUMO_DEFAULT_TYPE" route="left_3" depart="687" />
    <vehicle id="vehicle_230" type="SUMO_DEFAULT_TYPE" route="down_3" depart="687" />
    <vehicle id="vehicle_231" type="SUMO_DEFAULT_TYPE" route="down_3" depart="687" />
    <vehicle id="vehicle_232" type="SUMO_DEFAULT_TYPE" route="right_2" depart="687" />
    <vehicle id="vehicle_233" type="SUMO_DEFAULT_TYPE" route="right_3" depart="687" />
    <vehicle id="vehicle_234" type="SUMO_DEFAULT_TYPE" route="down_3" depart="687" />
    <vehicle id="vehicle_235" type="SUMO_DEFAULT_TYPE" route="top_1" depart="687" />
    <vehicle id="vehicle_236" type="SUMO_DEFAULT_TYPE" route="right_3" depart="687" />
    <vehicle id="vehicle_237" type="SUMO_DEFAULT_TYPE" route="right_3" depart="687" />
    <vehicle id="vehicle_238" type="SUMO_DEFAULT_TYPE" route="top_3" depart="687" />
    <vehicle id="vehicle_239" type="SUMO_DEFAULT_TYPE" route="down_2" depart="687" />
    <vehicle id="vehicle_240" type="SUMO_DEFAULT_TYPE" route="left_2" depart="720" />
    <vehicle id="vehicle_241" type="SUMO_DEFAULT_TYPE" route="down_1" depart="720" />
    <vehicle id="vehicle_242" type="SUMO_DEFAULT_TYPE" route="right_3" depart="720" />
    <vehicle id="vehicle_243" type="SUMO_DEFAULT_TYPE" route="down_2" depart="720" />
    <vehicle id="vehicle_244" type="SUMO_DEFAULT_TYPE" route="right_2" depart="720" />
    <vehicle id="vehicle_245" type="SUMO_DEFAULT_TYPE" route="top_3" depart="720" />
    <vehicle id="vehicle_246" type="SUMO_DEFAULT_TYPE" route="right_3" depart="720" />
    <vehicle id="vehicle_247" type="SUMO_DEFAULT_TYPE" route="top_3" depart="720" />
    <vehicle id="vehicle_248" type="SUMO_DEFAULT_TYPE" route="left_2" depart="744" />
    <vehicle id="vehicle_249" type="SUMO_DEFAULT_TYPE" route="down_1" depart="744" />
    <vehicle id="vehicle_250" type="SUMO_DEFAULT_TYPE" route="top_3" depart="744" />
    <vehicle id="vehicle_251" type="SUMO_DEFAULT_TYPE" route="down_1" depart="744" />
    <vehicle id="vehicle_252" type="SUMO_DEFAULT_TYPE" route="top_1" depart="744" />
    <vehicle id="vehicle_253" type="SUMO_DEFAULT_TYPE" route="left_1" depart="759" />
    <vehicle id="vehicle_254" type="SUMO_DEFAULT_TYPE" route="top_2" depart="759" />
    <vehicle id="vehicle_255" type="SUMO_DEFAULT_TYPE" route="left_2" depart="765" />
    <vehicle id="vehicle_256" type="SUMO_DEFAULT_TYPE" route="right_3" depart="765" />
    <vehicle id="vehicle_257" type="SUMO_DEFAULT_TYPE" route="top_3" depart="765" />
    <vehicle id="vehicle_258" type="SUMO_DEFAULT_TYPE" route="right_2" depart="765" />
    <vehicle id="vehicle_259" type="SUMO_DEFAULT_TYPE" route="right_1" depart="765" />
    <vehicle id="vehicle_260" type="SUMO_DEFAULT_TYPE" route="top_3" depart="765" />
    <vehicle id="vehicle_261" type="SUMO_DEFAULT_TYPE" route="left_1" depart="783" />
    <vehicle id="vehicle_262" type="SUMO_DEFAULT_TYPE" route="right_1" depart="783" />
    <vehicle id="vehicle_263" type="SUMO_DEFAULT_TYPE" route="top_3" depart="783" />
    <vehicle id="vehicle_264" type="SUMO_DEFAULT_TYPE" route="right_1" depart="783" />
    <vehicle id="vehicle_265" type="SUMO_DEFAULT_TYPE" route="top_1" depart="783" />
    <vehicle id="vehicle_266" type="SUMO_DEFAULT_TYPE" route="right_1" depart="783" />
    <vehicle id="vehicle_267" type="SUMO_DEFAULT_TYPE" route="right_3" depart="783" />
    <vehicle id="vehicle_268" type="SUMO_DEFAULT_TYPE" route="down_2" depart="783" />
    <vehicle id="vehicle_269" type="SUMO_DEFAULT_TYPE" route="right_3" depart="783" />
    <vehicle id="vehicle_270" type="SUMO_DEFAULT_TYPE" route="right_1" depart="783" />
    <vehicle id="vehicle_271" type="SUMO_DEFAULT_TYPE" route="right_2" depart="783" />
    <vehicle id="vehicle_272" type="SUMO_DEFAULT_TYPE" route="down_1" depart="783" />
    <vehicle id="vehicle_273" type="SUMO_DEFAULT_TYPE" route="down_3" depart="783" />
    <vehicle id="vehicle_274" type="SUMO_DEFAULT_TYPE" route="right_3" depart="783" />
    <vehicle id="vehicle_275" type="SUMO_DEFAULT_TYPE" route="top_2" depart="783" />
    <vehicle id="vehicle_276" type="SUMO_DEFAULT_TYPE" route="right_1" depart="783" />
    <vehicle id="vehicle_277" type="SUMO_DEFAULT_TYPE" route="down_1" depart="783" />
    <vehicle id="vehicle_278" type="SUMO_DEFAULT_TYPE" route="down_2" depart="783" />
    <vehicle id="vehicle_279" type="SUMO_DEFAULT_TYPE" route="down_3" depart="783" />
    <vehicle id="vehicle_280" type="SUMO_DEFAULT_TYPE" route="left_1" depart="840" />
    <vehicle id="vehicle_281" type="SUMO_DEFAULT_TYPE" route="top_1" depart="840" />
    <vehicle id="vehicle_282" type="SUMO_DEFAULT_TYPE" route="right_3" depart="840" />
    <vehicle id="vehicle_283" type="SUMO_DEFAULT_TYPE" route="top_3" depart="840" />
    <vehicle id="vehicle_284" type="SUMO_DEFAULT_TYPE" route="top_1" depart="840" />
    <vehicle id="vehicle_285" type="SUMO_DEFAULT_TYPE" route="right_2" depart="840" />
    <vehicle id="vehicle_286" type="SUMO_DEFAULT_TYPE" route="down_3" depart="840" />
    <vehicle id="vehicle_287" type="SUMO_DEFAULT_TYPE" route="right_2" depart="840" />
    <vehicle id="vehicle_288" type="SUMO_DEFAULT_TYPE" route="left_1" depart="864" />
    <vehicle id="vehicle_289" type="SUMO_DEFAULT_TYPE" route="right_2" depart="864" />
    <vehicle id="vehicle_290" type="SUMO_DEFAULT_TYPE" route="left_3" depart="870" />
    <vehicle id="vehicle_291" type="SUMO_DEFAULT_TYPE" route="right_2" depart="870" />
    <vehicle id="vehicle_292" type="SUMO_DEFAULT_TYPE" route="left_2" depart="876" />
    <vehicle id="vehicle_293" type="SUMO_DEFAULT_TYPE" route="down_2" depart="876" />
    <vehicle id="vehicle_294" type="SUMO_DEFAULT_TYPE" route="right_3" depart="876" />
    <vehicle id="vehicle_295" type="SUMO_DEFAULT_TYPE" route="top_2" depart="876" />
    <vehicle id="vehicle_296" type="SUMO_DEFAULT_TYPE" route="top_2" depart="876" />
    <vehicle id="vehicle_297" type="SUMO_DEFAULT_TYPE" route="right_2" depart="876" />
    <vehicle id="vehicle_298" type="SUMO_DEFAULT_TYPE" route="left_2" depart="894" />
    <vehicle id="vehicle_299" type="SUMO_DEFAULT_TYPE" route="down_3" depart="894" />
    <vehicle id="vehicle_300" type="SUMO_DEFAULT_TYPE" route="right_3" depart="894" />
    <vehicle id="vehicle_301" type="SUMO_DEFAULT_TYPE" route="top_2" depart="894" />
    <vehicle id="vehicle_302" type="SUMO_DEFAULT_TYPE" route="top_3" depart="894" />
    <vehicle id="vehicle_303" type="SUMO_DEFAULT_TYPE" route="left_2" depart="909" />
    <vehicle id="vehicle_304" type="SUMO_DEFAULT_TYPE" route="left_1" depart="912" />
    <vehicle id="vehicle_305" type="SUMO_DEFAULT_TYPE" route="right_1" depart="912" />
    <vehicle id="vehicle_306" type="SUMO_DEFAULT_TYPE" route="right_1" depart="912" />
    <vehicle id="vehicle_307" type="SUMO_DEFAULT_TYPE" route="left_2" depart="921" />
    <vehicle id="vehicle_308" type="SUMO_DEFAULT_TYPE" route="right_2" depart="921" />
    <vehicle id="vehicle_309" type="SUMO_DEFAULT_TYPE" route="top_2" depart="921" />
    <vehicle id="vehicle_310" type="SUMO_DEFAULT_TYPE" route="down_2" depart="921" />
    <vehicle id="vehicle_311" type="SUMO_DEFAULT_TYPE" route="right_2" depart="921" />
    <vehicle id="vehicle_312" type="SUMO_DEFAULT_TYPE" route="right_2" depart="921" />
    <vehicle id="vehicle_313" type="SUMO_DEFAULT_TYPE" route="left_2" depart="939" />
    <vehicle id="vehicle_314" type="SUMO_DEFAULT_TYPE" route="left_3" depart="942" />
    <vehicle id="vehicle_315" type="SUMO_DEFAULT_TYPE" route="left_2" depart="945" />
    <vehicle id="vehicle_316" type="SUMO_DEFAULT_TYPE" route="top_3" depart="945" />
    <vehicle id="vehicle_317" type="SUMO_DEFAULT_TYPE" route="left_3" depart="951" />
    <vehicle id="vehicle_318" type="SUMO_DEFAULT_TYPE" route="left_1" depart="954" />
    <vehicle id="vehicle_319" type="SUMO_DEFAULT_TYPE" route="top_1" depart="954" />
    <vehicle id="vehicle_320" type="SUMO_DEFAULT_TYPE" route="left_3" depart="960" />
    <vehicle id="vehicle_321" type="SUMO_DEFAULT_TYPE" route="top_1" depart="960" />
    <vehicle id="vehicle_322" type="SUMO_DEFAULT_TYPE" route="top_2" depart="960" />
    <vehicle id="vehicle_323" type="SUMO_DEFAULT_TYPE" route="left_3" depart="969" />
    <vehicle id="vehicle_324" type="SUMO_DEFAULT_TYPE" route="top_2" depart="969" />
    <vehicle id="vehicle_325" type="SUMO_DEFAULT_TYPE" route="down_2" depart="969" />
    <vehicle id="vehicle_326" type="SUMO_DEFAULT_TYPE" route="top_3" depart="969" />
    <vehicle id="vehicle_327" type="SUMO_DEFAULT_TYPE" route="left_1" depart="981" />
    <vehicle id="vehicle_328" type="SUMO_DEFAULT_TYPE" route="down_1" depart="981" />
    <vehicle id="vehicle_329" type="SUMO_DEFAULT_TYPE" route="left_2" depart="987" />
    <vehicle id="vehicle_330" type="SUMO_DEFAULT_TYPE" route="right_2" depart="987" />
    <vehicle id="vehicle_331" type="SUMO_DEFAULT_TYPE" route="top_1" depart="987" />
    <vehicle id="vehicle_332" type="SUMO_DEFAULT_TYPE" route="top_1" depart="987" />
    <vehicle id="vehicle_333" type="SUMO_DEFAULT_TYPE" route="down_3" depart="987" />
    <vehicle id="vehicle_334" type="SUMO_DEFAULT_TYPE" route="left_3" depart="1002" />
    <vehicle id="vehicle_335" type="SUMO_DEFAULT_TYPE" route="left_2" depart="1005" />
    <vehicle id="vehicle_336" type="SUMO_DEFAULT_TYPE" route="right_3" depart="1005" />
    <vehicle id="vehicle_337" type="SUMO_DEFAULT_TYPE" route="down_1" depart="1005" />