<routes xmlns:xsi="http://www.w3.org/2001/XMLSchema-instance" xsi:noNamespaceSchemaLocation="http://sumo.dlr.de/xsd/routes_file.xsd">
    <vType id="SUMO_DEFAULT_TYPE" accel="0.8" decel="4.5" sigma="0" length="5" minGap="2" maxSpeed="70"/>
    
	<route id="left_1" edges="1si 4o"/>
	<route id="left_2" edges="1si 2o"/>
	<route id="left_3" edges="1si 3o"/>
	
	<route id="top_1" edges="4si 1o"/>
	<route id="top_2" edges="4si 2o"/>
	<route id="top_3" edges="4si 3o"/>
	
	<route id="down_1" edges="3si 1o"/>
	<route id="down_2" edges="3si 2o"/>
	<route id="down_3" edges="3si 4o"/>
	
	<route id="right_1" edges="2si 1o"/>
	<route id="right_2" edges="2si 3o"/>
	<route id="right_3" edges="2si 4o"/>
    
    <vehicle id="vehicle_0" type="SUMO_DEFAULT_TYPE" route="left_1" depart="0" />
    <vehicle id="vehicle_1" type="SUMO_DEFAULT_TYPE" route="down_1" depart="1" />
    <vehicle id="vehicle_2" type="SUMO_DEFAULT_TYPE" route="top_1" depart="2" />
    <vehicle id="vehicle_3" type="SUMO_DEFAULT_TYPE" route="left_3" depart="3" />
    <vehicle id="vehicle_4" type="SUMO_DEFAULT_TYPE" route="left_3" depart="4" />
    <vehicle id="vehicle_5" type="SUMO_DEFAULT_TYPE" route="right_1" depart="5" />
    <vehicle id="vehicle_6" type="SUMO_DEFAULT_TYPE" route="left_1" depart="6" />
    <vehicle id="vehicle_7" type="SUMO_DEFAULT_TYPE" route="top_1" depart="7" />
    <vehicle id="vehicle_8" type="SUMO_DEFAULT_TYPE" route="left_3" depart="8" />
    <vehicle id="vehicle_9" type="SUMO_DEFAULT_TYPE" route="top_3" depart="9" />
    <vehicle id="vehicle_10" type="SUMO_DEFAULT_TYPE" route="right_1" depart="10" />
    <vehicle id="vehicle_11" type="SUMO_DEFAULT_TYPE" route="right_3" depart="11" />
    <vehicle id="vehicle_12" type="SUMO_DEFAULT_TYPE" route="down_1" depart="12" />
    <vehicle id="vehicle_13" type="SUMO_DEFAULT_TYPE" route="top_3" depart="13" />
    <vehicle id="vehicle_14" type="SUMO_DEFAULT_TYPE" route="right_2" depart="14" />
    <vehicle id="vehicle_15" type="SUMO_DEFAULT_TYPE" route="down_1" depart="15" />
    <vehicle id="vehicle_16" type="SUMO_DEFAULT_TYPE" route="top_2" depart="16" />
    <vehicle id="vehicle_17" type="SUMO_DEFAULT_TYPE" route="left_1" depart="17" />
    <vehicle id="vehicle_18" type="SUMO_DEFAULT_TYPE" route="right_1" depart="18" />
    <vehicle id="vehicle_19" type="SUMO_DEFAULT_TYPE" route="down_2" depart="19" />
    <vehicle id="vehicle_20" type="SUMO_DEFAULT_TYPE" route="down_1" depart="20" />
    <vehicle id="vehicle_21" type="SUMO_DEFAULT_TYPE" route="right_3" depart="21" />
    <vehicle id="vehicle_22" type="SUMO_DEFAULT_TYPE" route="left_2" depart="22" />
    <vehicle id="vehicle_23" type="SUMO_DEFAULT_TYPE" route="left_3" depart="23" />
    <vehicle id="vehicle_24" type="SUMO_DEFAULT_TYPE" route="down_3" depart="24" />
    <vehicle id="vehicle_25" type="SUMO_DEFAULT_TYPE" route="down_3" depart="25" />
    <vehicle id="vehicle_26" type="SUMO_DEFAULT_TYPE" route="top_3" depart="26" />
    <vehicle id="vehicle_27" type="SUMO_DEFAULT_TYPE" route="left_1" depart="27" />
    <vehicle id="vehicle_28" type="SUMO_DEFAULT_TYPE" route="top_2" depart="28" />
    <vehicle id="vehicle_29" type="SUMO_DEFAULT_TYPE" route="left_1" depart="29" />
    <vehicle id="vehicle_30" type="SUMO_DEFAULT_TYPE" route="left_2" depart="30" />
    <vehicle id="vehicle_31" type="SUMO_DEFAULT_TYPE" route="down_2" depart="31" />
    <vehicle id="vehicle_32" type="SUMO_DEFAULT_TYPE" route="down_1" depart="32" />
    <vehicle id="vehicle_33" type="SUMO_DEFAULT_TYPE" route="down_2" depart="33" />
    <vehicle id="vehicle_34" type="SUMO_DEFAULT_TYPE" route="top_3" depart="34" />
    <vehicle id="vehicle_35" type="SUMO_DEFAULT_TYPE" route="down_3" depart="35" />
    <vehicle id="vehicle_36" type="SUMO_DEFAULT_TYPE" route="left_3" depart="36" />
    <vehicle id="vehicle_37" type="SUMO_DEFAULT_TYPE" route="top_3" depart="37" />
    <vehicle id="vehicle_38" type="SUMO_DEFAULT_TYPE" route="top_1" depart="38" />
    <vehicle id="vehicle_39" type="SUMO_DEFAULT_TYPE" route="right_2" depart="39" />
    <vehicle id="vehicle_40" type="SUMO_DEFAULT_TYPE" route="down_3" depart="40" />
    <vehicle id="vehicle_41" type="SUMO_DEFAULT_TYPE" route="top_3" depart="41" />
    <vehicle id="vehicle_42" type="SUMO_DEFAULT_TYPE" route="down_1" depart="42" />
    <vehicle id="vehicle_43" type="SUMO_DEFAULT_TYPE" route="top_1" depart="43" />
    <vehicle id="vehicle_44" type="SUMO_DEFAULT_TYPE" route="down_2" depart="44" />
    <vehicle id="vehicle_45" type="SUMO_DEFAULT_TYPE" route="down_1" depart="45" />
    <vehicle id="vehicle_46" type="SUMO_DEFAULT_TYPE" route="top_3" depart="46" />
    <vehicle id="vehicle_47" type="SUMO_DEFAULT_TYPE" route="down_1" depart="47" />
    <vehicle id="vehicle_48" type="SUMO_DEFAULT_TYPE" route="right_2" depart="48" />
    <vehicle id="vehicle_49" type="SUMO_DEFAULT_TYPE" route="right_1" depart="49" />
    <vehicle id="vehicle_50" type="SUMO_DEFAULT_TYPE" route="down_1" depart="50" />
    <vehicle id="vehicle_51" type="SUMO_DEFAULT_TYPE" route="top_3" depart="51" />
    <vehicle id="vehicle_52" type="SUMO_DEFAULT_TYPE" route="down_3" depart="52" />
    <vehicle id="vehicle_53" type="SUMO_DEFAULT_TYPE" route="right_3" depart="53" />
    <vehicle id="vehicle_54" type="SUMO_DEFAULT_TYPE" route="right_2" depart="54" />
    <vehicle id="vehicle_55" type="SUMO_DEFAULT_TYPE" route="top_1" depart="55" />
    <vehicle id="vehicle_56" type="SUMO_DEFAULT_TYPE" route="right_1" depart="56" />
    <vehicle id="vehicle_57" type="SUMO_DEFAULT_TYPE" route="left_1" depart="57" />
    <vehicle id="vehicle_58" type="SUMO_DEFAULT_TYPE" route="top_3" depart="58" />
    <vehicle id="vehicle_59" type="SUMO_DEFAULT_TYPE" route="top_3" depart="59" />
    <vehicle id="vehicle_60" type="SUMO_DEFAULT_TYPE" route="right_3" depart="60" />
    <vehicle id="vehicle_61" type="SUMO_DEFAULT_TYPE" route="left_2" depart="61" />
    <vehicle id="vehicle_62" type="SUMO_DEFAULT_TYPE" route="right_3" depart="62" />
    <vehicle id="vehicle_63" type="SUMO_DEFAULT_TYPE" route="right_3" depart="63" />
    <vehicle id="vehicle_64" type="SUMO_DEFAULT_TYPE" route="down_3" depart="64" />
    <vehicle id="vehicle_65" type="SUMO_DEFAULT_TYPE" route="left_3" depart="65" />
    <vehicle id="vehicle_66" type="SUMO_DEFAULT_TYPE" route="left_3" depart="66" />
    <vehicle id="vehicle_67" type="SUMO_DEFAULT_TYPE" route="down_3" depart="67" />
    <vehicle id="vehicle_68" type="SUMO_DEFAULT_TYPE" route="down_1" depart="68" />
    <vehicle id="vehicle_69" type="SUMO_DEFAULT_TYPE" route="down_2" depart="69" />
    <vehicle id="vehicle_70" type="SUMO_DEFAULT_TYPE" route="top_2" depart="70" />
    <vehicle id="vehicle_71" type="SUMO_DEFAULT_TYPE" route="left_3" depart="71" />
    <vehicle id="vehicle_72" type="SUMO_DEFAULT_TYPE" route="down_3" depart="72" />
    <vehicle id="vehicle_73" type="SUMO_DEFAULT_TYPE" route="top_3" depart="73" />
    <vehicle id="vehicle_74" type="SUMO_DEFAULT_TYPE" route="left_3" depart="74" />
    <vehicle id="vehicle_75" type="SUMO_DEFAULT_TYPE" route="down_3" depart="75" />
    <vehicle id="vehicle_76" type="SUMO_DEFAULT_TYPE" route="top_1" depart="76" />
    <vehicle id="vehicle_77" type="SUMO_DEFAULT_TYPE" route="down_1" depart="77" />
    <vehicle id="vehicle_78" type="SUMO_DEFAULT_TYPE" route="left_3" depart="78" />
    <vehicle id="vehicle_79" type="SUMO_DEFAULT_TYPE" route="down_2" depart="79" />
    <vehicle id="vehicle_80" type="SUMO_DEFAULT_TYPE" route="left_1" depart="80" />
    <vehicle id="vehicle_81" type="SUMO_DEFAULT_TYPE" route="down_2" depart="81" />
    <vehicle id="vehicle_82" type="SUMO_DEFAULT_TYPE" route="top_1" depart="82" />
    <vehicle id="vehicle_83" type="SUMO_DEFAULT_TYPE" route="top_3" depart="83" />
    <vehicle id="vehicle_84" type="SUMO_DEFAULT_TYPE" route="left_1" depart="84" />
    <vehicle id="vehicle_85" type="SUMO_DEFAULT_TYPE" route="right_1" depart="85" />
    <vehicle id="vehicle_86" type="SUMO_DEFAULT_TYPE" route="top_1" depart="86" />
    <vehicle id="vehicle_87" type="SUMO_DEFAULT_TYPE" route="right_3" depart="87" />
    <vehicle id="vehicle_88" type="SUMO_DEFAULT_TYPE" route="top_2" depart="88" />
    <vehicle id="vehicle_89" type="SUMO_DEFAULT_TYPE" route="right_1" depart="89" />
    <vehicle id="vehicle_90" type="SUMO_DEFAULT_TYPE" route="top_3" depart="90" />
    <vehicle id="vehicle_91" type="SUMO_DEFAULT_TYPE" route="down_2" depart="91" />
    <vehicle id="vehicle_92" type="SUMO_DEFAULT_TYPE" route="down_2" depart="92" />
    <vehicle id="vehicle_93" type="SUMO_DEFAULT_TYPE" route="right_1" depart="93" />
    <vehicle id="vehicle_94" type="SUMO_DEFAULT_TYPE" route="top_1" depart="94" />
    <vehicle id="vehicle_95" type="SUMO_DEFAULT_TYPE" route="left_2" depart="95" />
    <vehicle id="vehicle_96" type="SUMO_DEFAULT_TYPE" route="left_3" depart="96" />
    <vehicle id="vehicle_97" type="SUMO_DEFAULT_TYPE" route="top_3" depart="97" />
    <vehicle id="vehicle_98" type="SUMO_DEFAULT_TYPE" route="top_1" depart="98" />
    <vehicle id="vehicle_99" type="SUMO_DEFAULT_TYPE" route="left_3" depart="99" />
    <vehicle id="vehicle_100" type="SUMO_DEFAULT_TYPE" route="left_1" depart="100" />
    <vehicle id="vehicle_101" type="SUMO_DEFAULT_TYPE" route="left_1" depart="101" />
    <vehicle id="vehicle_102" type="SUMO_DEFAULT_TYPE" route="down_1" depart="102" />
    <vehicle id="vehicle_103" type="SUMO_DEFAULT_TYPE" route="top_2" depart="103" />
    <vehicle id="vehicle_104" type="SUMO_DEFAULT_TYPE" route="right_1" depart="104" />
    <vehicle id="vehicle_105" type="SUMO_DEFAULT_TYPE" route="top_3" depart="105" />
    <vehicle id="vehicle_106" type="SUMO_DEFAULT_TYPE" route="right_1" depart="106" />
    <vehicle id="vehicle_107" type="SUMO_DEFAULT_TYPE" route="right_2" depart="107" />
    <vehicle id="vehicle_108" type="SUMO_DEFAULT_TYPE" route="top_1" depart="108" />
    <vehicle id="vehicle_109" type="SUMO_DEFAULT_TYPE" route="left_3" depart="109" />
    <vehicle id="vehicle_110" type="SUMO_DEFAULT_TYPE" route="right_2" depart="110" />
    <vehicle id="vehicle_111" type="SUMO_DEFAULT_TYPE" route="right_2" depart="111" />
    <vehicle id="vehicle_112" type="SUMO_DEFAULT_TYPE" route="right_3" depart="112" />
    <vehicle id="vehicle_113" type="SUMO_DEFAULT_TYPE" route="left_3" depart="113" />
    <vehicle id="vehicle_114" type="SUMO_DEFAULT_TYPE" route="left_1" depart="114" />
    <vehicle id="vehicle_115" type="SUMO_DEFAULT_TYPE" route="right_3" depart="115" />
    <vehicle id="vehicle_116" type="SUMO_DEFAULT_TYPE" route="down_1" depart="116" />
    <vehicle id="vehicle_117" type="SUMO_DEFAULT_TYPE" route="top_1" depart="117" />
    <vehicle id="vehicle_118" type="SUMO_DEFAULT_TYPE" route="top_3" depart="118" />
    <vehicle id="vehicle_119" type="SUMO_DEFAULT_TYPE" route="right_1" depart="119" />
    <vehicle id="vehicle_120" type="SUMO_DEFAULT_TYPE" route="right_1" depart="120" />
    <vehicle id="vehicle_121" type="SUMO_DEFAULT_TYPE" route="down_2" depart="121" />
    <vehicle id="vehicle_122" type="SUMO_DEFAULT_TYPE" route="top_1" depart="122" />
    <vehicle id="vehicle_123" type="SUMO_DEFAULT_TYPE" route="right_3" depart="123" />
    <vehicle id="vehicle_124" type="SUMO_DEFAULT_TYPE" route="left_1" depart="124" />
    <vehicle id="vehicle_125" type="SUMO_DEFAULT_TYPE" route="left_1" depart="125" />
    <vehicle id="vehicle_126" type="SUMO_DEFAULT_TYPE" route="top_1" depart="126" />
    <vehicle id="vehicle_127" type="SUMO_DEFAULT_TYPE" route="right_2" depart="127" />
    <vehicle id="vehicle_128" type="SUMO_DEFAULT_TYPE" route="right_1" depart="128" />
    <vehicle id="vehicle_129" type="SUMO_DEFAULT_TYPE" route="right_1" depart="129" />
    <vehicle id="vehicle_130" type="SUMO_DEFAULT_TYPE" route="top_2" depart="130" />
    <vehicle id="vehicle_131" type="SUMO_DEFAULT_TYPE" route="left_2" depart="131" />
    <vehicle id="vehicle_132" type="SUMO_DEFAULT_TYPE" route="down_2" depart="132" />
    <vehicle id="vehicle_133" type="SUMO_DEFAULT_TYPE" route="down_2" depart="133" />
    <vehicle id="vehicle_134" type="SUMO_DEFAULT_TYPE" route="right_1" depart="134" />
    <vehicle id="vehicle_135" type="SUMO_DEFAULT_TYPE" route="top_2" depart="135" />
    <vehicle id="vehicle_136" type="SUMO_DEFAULT_TYPE" route="top_1" depart="136" />
    <vehicle id="vehicle_137" type="SUMO_DEFAULT_TYPE" route="left_3" depart="137" />
    <vehicle id="vehicle_138" type="SUMO_DEFAULT_TYPE" route="down_1" depart="138" />
    <vehicle id="vehicle_139" type="SUMO_DEFAULT_TYPE" route="left_3" depart="139" />
    <vehicle id="vehicle_140" type="SUMO_DEFAULT_TYPE" route="right_3" depart="140" />
    <vehicle id="vehicle_141" type="SUMO_DEFAULT_TYPE" route="top_1" depart="141" />
    <vehicle id="vehicle_142" type="SUMO_DEFAULT_TYPE" route="left_1" depart="142" />
    <vehicle id="vehicle_143" type="SUMO_DEFAULT_TYPE" route="left_3" depart="143" />
    <vehicle id="vehicle_144" type="SUMO_DEFAULT_TYPE" route="left_3" depart="144" />
    <vehicle id="vehicle_145" type="SUMO_DEFAULT_TYPE" route="top_2" depart="145" />
    <vehicle id="vehicle_146" type="SUMO_DEFAULT_TYPE" route="left_3" depart="146" />
    <vehicle id="vehicle_147" type="SUMO_DEFAULT_TYPE" route="top_3" depart="147" />
    <vehicle id="vehicle_148" type="SUMO_DEFAULT_TYPE" route="left_3" depart="148" />
    <vehicle id="vehicle_149" type="SUMO_DEFAULT_TYPE" route="left_2" depart="149" />
    <vehicle id="vehicle_150" type="SUMO_DEFAULT_TYPE" route="down_2" depart="150" />
    <vehicle id="vehicle_151" type="SUMO_DEFAULT_TYPE" route="top_3" depart="151" />
    <vehicle id="vehicle_152" type="SUMO_DEFAULT_TYPE" route="down_1" depart="152" />
    <vehicle id="vehicle_153" type="SUMO_DEFAULT_TYPE" route="down_2" depart="153" />
    <vehicle id="vehicle_154" type="SUMO_DEFAULT_TYPE" route="top_3" depart="154" />
    <vehicle id="vehicle_155" type="SUMO_DEFAULT_TYPE" route="down_2" depart="155" />
    <vehicle id="vehicle_156" type="SUMO_DEFAULT_TYPE" route="down_1" depart="156" />
    <vehicle id="vehicle_157" type="SUMO_DEFAULT_TYPE" route="left_2" depart="157" />
    <vehicle id="vehicle_158" type="SUMO_DEFAULT_TYPE" route="left_1" depart="158" />
    <vehicle id="vehicle_159" type="SUMO_DEFAULT_TYPE" route="top_3" depart="159" />
    <vehicle id="vehicle_160" type="SUMO_DEFAULT_TYPE" route="down_1" depart="160" />
    <vehicle id="vehicle_161" type="SUMO_DEFAULT_TYPE" route="down_1" depart="161" />
    <vehicle id="vehicle_162" type="SUMO_DEFAULT_TYPE" route="top_2" depart="162" />
    <vehicle id="vehicle_163" type="SUMO_DEFAULT_TYPE" route="down_1" depart="163" />
    <vehicle id="vehicle_164" type="SUMO_DEFAULT_TYPE" route="right_3" depart="164" />
    <vehicle id="vehicle_165" type="SUMO_DEFAULT_TYPE" route="down_3" depart="165" />
    <vehicle id="vehicle_166" type="SUMO_DEFAULT_TYPE" route="left_3" depart="166" />
    <vehicle id="vehicle_167" type="SUMO_DEFAULT_TYPE" route="down_3" depart="167" />
    <vehicle id="vehicle_168" type="SUMO_DEFAULT_TYPE" route="left_1" depart="168" />
    <vehicle id="vehicle_169" type="SUMO_DEFAULT_TYPE" route="down_1" depart="169" />
    <vehicle id="vehicle_170" type="SUMO_DEFAULT_TYPE" route="left_3" depart="170" />
    <vehicle id="vehicle_171" type="SUMO_DEFAULT_TYPE" route="top_2" depart="171" />
    <vehicle id="vehicle_172" type="SUMO_DEFAULT_TYPE" route="down_3" depart="172" />
    <vehicle id="vehicle_173" type="SUMO_DEFAULT_TYPE" route="top_3" depart="173" />
    <vehicle id="vehicle_174" type="SUMO_DEFAULT_TYPE" route="down_1" depart="174" />
    <vehicle id="vehicle_175" type="SUMO_DEFAULT_TYPE" route="down_3" depart="175" />
    <vehicle id="vehicle_176" type="SUMO_DEFAULT_TYPE" route="right_2" depart="176" />
    <vehicle id="vehicle_177" type="SUMO_DEFAULT_TYPE" route="left_1" depart="177" />
    <vehicle id="vehicle_178" type="SUMO_DEFAULT_TYPE" route="right_2" depart="178" />
    <vehicle id="vehicle_179" type="SUMO_DEFAULT_TYPE" route="left_1" depart="179" />
    <vehicle id="vehicle_180" type="SUMO_DEFAULT_TYPE" route="down_1" depart="180" />
    <vehicle id="vehicle_181" type="SUMO_DEFAULT_TYPE" route="down_1" depart="181" />
    <vehicle id="vehicle_182" type="SUMO_DEFAULT_TYPE" route="right_3" depart="182" />
    <vehicle id="vehicle_183" type="SUMO_DEFAULT_TYPE" route="right_3" depart="183" />
    <vehicle id="vehicle_184" type="SUMO_DEFAULT_TYPE" route="left_1" depart="184" />
    <vehicle id="vehicle_185" type="SUMO_DEFAULT_TYPE" route="left_3" depart="185" />
    <vehicle id="vehicle_186" type="SUMO_DEFAULT_TYPE" route="top_3" depart="186" />
    <vehicle id="vehicle_187" type="SUMO_DEFAULT_TYPE" route="left_2" depart="187" />
    <vehicle id="vehicle_188" type="SUMO_DEFAULT_TYPE" route="top_2" depart="188" />
    <vehicle id="vehicle_189" type="SUMO_DEFAULT_TYPE" route="top_1" depart="189" />
    <vehicle id="vehicle_190" type="SUMO_DEFAULT_TYPE" route="down_2" depart="190" />
    <vehicle id="vehicle_191" type="SUMO_DEFAULT_TYPE" route="left_2" depart="191" />
    <vehicle id="vehicle_192" type="SUMO_DEFAULT_TYPE" route="top_3" depart="192" />
    <vehicle id="vehicle_193" type="SUMO_DEFAULT_TYPE" route="top_3" depart="193" />
    <vehicle id="vehicle_194" type="SUMO_DEFAULT_TYPE" route="left_2" depart="194" />
    <vehicle id="vehicle_195" type="SUMO_DEFAULT_TYPE" route="right_3" depart="195" />
    <vehicle id="vehicle_196" type="SUMO_DEFAULT_TYPE" route="top_1" depart="196" />
    <vehicle id="vehicle_197" type="SUMO_DEFAULT_TYPE" route="top_1" depart="197" />
    <vehicle id="vehicle_198" type="SUMO_DEFAULT_TYPE" route="right_1" depart="198" />
    <vehicle id="vehicle_199" type="SUMO_DEFAULT_TYPE" route="top_3" depart="199" />
    <vehicle id="vehicle_200" type="SUMO_DEFAULT_TYPE" route="down_2" depart="200" />
    <vehicle id="vehicle_201" type="SUMO_DEFAULT_TYPE" route="top_2" depart="201" />
    <vehicle id="vehicle_202" type="SUMO_DEFAULT_TYPE" route="top_3" depart="202" />
    <vehicle id="vehicle_203" type="SUMO_DEFAULT_TYPE" route="left_2" depart="203" />
    <vehicle id="vehicle_204" type="SUMO_DEFAULT_TYPE" route="left_2" depart="204" />
    <vehicle id="vehicle_205" type="SUMO_DEFAULT_TYPE" route="top_1" depart="205" />
    <vehicle id="vehicle_206" type="SUMO_DEFAULT_TYPE" route="right_2" depart="206" />
    <vehicle id="vehicle_207" type="SUMO_DEFAULT_TYPE" route="down_1" depart="207" />
    <vehicle id="vehicle_208" type="SUMO_DEFAULT_TYPE" route="top_1" depart="208" />
    <vehicle id="vehicle_209" type="SUMO_DEFAULT_TYPE" route="top_2" depart="209" />
    <vehicle id="vehicle_210" type="SUMO_DEFAULT_TYPE" route="down_2" depart="210" />
    <vehicle id="vehicle_211" type="SUMO_DEFAULT_TYPE" route="left_2" depart="211" />
    <vehicle id="vehicle_212" type="SUMO_DEFAULT_TYPE" route="down_3" depart="212" />
    <vehicle id="vehicle_213" type="SUMO_DEFAULT_TYPE" route="right_3" depart="213" />
    <vehicle id="vehicle_214" type="SUMO_DEFAULT_TYPE" route="down_1" depart="214" />
    <vehicle id="vehicle_215" type="SUMO_DEFAULT_TYPE" route="left_2" depart="215" />
    <vehicle id="vehicle_216" type="SUMO_DEFAULT_TYPE" route="top_3" depart="216" />
    <vehicle id="vehicle_217" type="SUMO_DEFAULT_TYPE" route="down_1" depart="217" />
    <vehicle id="vehicle_218" type="SUMO_DEFAULT_TYPE" route="left_3" depart="218" />
    <vehicle id="vehicle_219" type="SUMO_DEFAULT_TYPE" route="right_2" depart="219" />
    <vehicle id="vehicle_220" type="SUMO_DEFAULT_TYPE" route="down_2" depart="220" />
    <vehicle id="vehicle_221" type="SUMO_DEFAULT_TYPE" route="left_2" depart="221" />
    <vehicle id="vehicle_222" type="SUMO_DEFAULT_TYPE" route="top_2" depart="222" />
    <vehicle id="vehicle_223" type="SUMO_DEFAULT_TYPE" route="left_3" depart="223" />
    <vehicle id="vehicle_224" type="SUMO_DEFAULT_TYPE" route="right_1" depart="224" />
    <vehicle id="vehicle_225" type="SUMO_DEFAULT_TYPE" route="top_2" depart="225" />
    <vehicle id="vehicle_226" type="SUMO_DEFAULT_TYPE" route="right_1" depart="226" />
    <vehicle id="vehicle_227" type="SUMO_DEFAULT_TYPE" route="down_3" depart="227" />
    <vehicle id="vehicle_228" type="SUMO_DEFAULT_TYPE" route="down_3" depart="228" />
    <vehicle id="vehicle_229" type="SUMO_DEFAULT_TYPE" route="left_3" depart="229" />
    <vehicle id="vehicle_230" type="SUMO_DEFAULT_TYPE" route="down_3" depart="230" />
    <vehicle id="vehicle_231" type="SUMO_DEFAULT_TYPE" route="down_3" depart="231" />
    <vehicle id="vehicle_232" type="SUMO_DEFAULT_TYPE" route="right_2" depart="232" />
    <vehicle id="vehicle_233" type="SUMO_DEFAULT_TYPE" route="right_3" depart="233" />
    <vehicle id="vehicle_234" type="SUMO_DEFAULT_TYPE" route="down_3" depart="234" />
    <vehicle id="vehicle_235" type="SUMO_DEFAULT_TYPE" route="top_1" depart="235" />
    <vehicle id="vehicle_236" type="SUMO_DEFAULT_TYPE" route="right_3" depart="236" />
    <vehicle id="vehicle_237" type="SUMO_DEFAULT_TYPE" route="right_3" depart="237" />
    <vehicle id="vehicle_238" type="SUMO_DEFAULT_TYPE" route="top_3" depart="238" />
    <vehicle id="vehicle_239" type="SUMO_DEFAULT_TYPE" route="down_2" depart="239" />
    <vehicle id="vehicle_240" type="SUMO_DEFAULT_TYPE" route="left_2" depart="240" />
    <vehicle id="vehicle_241" type="SUMO_DEFAULT_TYPE" route="down_1" depart="241" />
    <vehicle id="vehicle_242" type="SUMO_DEFAULT_TYPE" route="right_3" depart="242" />
    <vehicle id="vehicle_243" type="SUMO_DEFAULT_TYPE" route="down_2" depart="243" />
    <vehicle id="vehicle_244" type="SUMO_DEFAULT_TYPE" route="right_2" depart="244" />
    <vehicle id="vehicle_245" type="SUMO_DEFAULT_TYPE" route="top_3" depart="245" />
    <vehicle id="vehicle_246" type="SUMO_DEFAULT_TYPE" route="right_3" depart="246" />
    <vehicle id="vehicle_247" type="SUMO_DEFAULT_TYPE" route="top_3" depart="247" />
    <vehicle id="vehicle_248" type="SUMO_DEFAULT_TYPE" route="left_2" depart="248" />
    <vehicle id="vehicle_249" type="SUMO_DEFAULT_TYPE" route="down_1" depart="249" />
    <vehicle id="vehicle_250" type="SUMO_DEFAULT_TYPE" route="top_3" depart="250" />
    <vehicle id="vehicle_251" type="SUMO_DEFAULT_TYPE" route="down_1" depart="251" />
    <vehicle id="vehicle_252" type="SUMO_DEFAULT_TYPE" route="top_1" depart="252" />
    <vehicle id="vehicle_253" type="SUMO_DEFAULT_TYPE" route="left_1" depart="253" />
    <vehicle id="vehicle_254" type="SUMO_DEFAULT_TYPE" route="top_2" depart="254" />
    <vehicle id="vehicle_255" type="SUMO_DEFAULT_TYPE" route="left_2" depart="255" />
    <vehicle id="vehicle_256" type="SUMO_DEFAULT_TYPE" route="right_3" depart="256" />
    <vehicle id="vehicle_257" type="SUMO_DEFAULT_TYPE" route="top_3" depart="257" />
    <vehicle id="vehicle_258" type="SUMO_DEFAULT_TYPE" route="right_2" depart="258" />
    <vehicle id="vehicle_259" type="SUMO_DEFAULT_TYPE" route="right_1" depart="259" />
    <vehicle id="vehicle_260" type="SUMO_DEFAULT_TYPE" route="top_3" depart="260" />
    <vehicle id="vehicle_261" type="SUMO_DEFAULT_TYPE" route="left_1" depart="261" />
    <vehicle id="vehicle_262" type="SUMO_DEFAULT_TYPE" route="right_1" depart="262" />
    <vehicle id="vehicle_263" type="SUMO_DEFAULT_TYPE" route="top_3" depart="263" />
    <vehicle id="vehicle_264" type="SUMO_DEFAULT_TYPE" route="right_1" depart="264" />
    <vehicle id="vehicle_265" type="SUMO_DEFAULT_TYPE" route="top_1" depart="265" />
    <vehicle id="vehicle_266" type="SUMO_DEFAULT_TYPE" route="right_1" depart="266" />
    <vehicle id="vehicle_267" type="SUMO_DEFAULT_TYPE" route="right_3" depart="267" />
    <vehicle id="vehicle_268" type="SUMO_DEFAULT_TYPE" route="down_2" depart="268" />
    <vehicle id="vehicle_269" type="SUMO_DEFAULT_TYPE" route="right_3" depart="269" />
    <vehicle id="vehicle_270" type="SUMO_DEFAULT_TYPE" route="right_1" depart="270" />
    <vehicle id="vehicle_271" type="SUMO_DEFAULT_TYPE" route="right_2" depart="271" />
    <vehicle id="vehicle_272" type="SUMO_DEFAULT_TYPE" route="down_1" depart="272" />
    <vehicle id="vehicle_273" type="SUMO_DEFAULT_TYPE" route="down_3" depart="273" />
    <vehicle id="vehicle_274" type="SUMO_DEFAULT_TYPE" route="right_3" depart="274" />
    <vehicle id="vehicle_275" type="SUMO_DEFAULT_TYPE" route="top_2" depart="275" />
    <vehicle id="vehicle_276" type="SUMO_DEFAULT_TYPE" route="right_1" depart="276" />
    <vehicle id="vehicle_277" type="SUMO_DEFAULT_TYPE" route="down_1" depart="277" />
    <vehicle id="vehicle_278" type="SUMO_DEFAULT_TYPE" route="down_2" depart="278" />
    <vehicle id="vehicle_279" type="SUMO_DEFAULT_TYPE" route="down_3" depart="279" />
    <vehicle id="vehicle_280" type="SUMO_DEFAULT_TYPE" route="left_1" depart="280" />
    <vehicle id="vehicle_281" type="SUMO_DEFAULT_TYPE" route="top_1" depart="281" />
    <vehicle id="vehicle_282" type="SUMO_DEFAULT_TYPE" route="right_3" depart="282" />
    <vehicle id="vehicle_283" type="SUMO_DEFAULT_TYPE" route="top_3" depart="283" />
    <vehicle id="vehicle_284" type="SUMO_DEFAULT_TYPE" route="top_1" depart="284" />
    <vehicle id="vehicle_285" type="SUMO_DEFAULT_TYPE" route="right_2" depart="285" />
    <vehicle id="vehicle_286" type="SUMO_DEFAULT_TYPE" route="down_3" depart="286" />
    <vehicle id="vehicle_287" type="SUMO_DEFAULT_TYPE" route="right_2" depart="287" />
    <vehicle id="vehicle_288" type="SUMO_DEFAULT_TYPE" route="left_1" depart="288" />
    <vehicle id="vehicle_289" type="SUMO_DEFAULT_TYPE" route="right_2" depart="289" />
    <vehicle id="vehicle_290" type="SUMO_DEFAULT_TYPE" route="left_3" depart="290" />
    <vehicle id="vehicle_291" type="SUMO_DEFAULT_TYPE" route="right_2" depart="291" />
    <vehicle id="vehicle_292" type="SUMO_DEFAULT_TYPE" route="left_2" depart="292" />
    <vehicle id="vehicle_293" type="SUMO_DEFAULT_TYPE" route="down_2" depart="293" />
    <vehicle id="vehicle_294" type="SUMO_DEFAULT_TYPE" route="right_3" depart="294" />
    <vehicle id="vehicle_295" type="SUMO_DEFAULT_TYPE" route="top_2" depart="295" />
    <vehicle id="vehicle_296" type="SUMO_DEFAULT_TYPE" route="top_2" depart="296" />
    <vehicle id="vehicle_297" type="SUMO_DEFAULT_TYPE" route="right_2" depart="297" />
    <vehicle id="vehicle_298" type="SUMO_DEFAULT_TYPE" route="left_2" depart="298" />
    <vehicle id="vehicle_299" type="SUMO_DEFAULT_TYPE" route="down_3" depart="299" />
    <vehicle id="vehicle_300" type="SUMO_DEFAULT_TYPE" route="right_3" depart="300" />
    <vehicle id="vehicle_301" type="SUMO_DEFAULT_TYPE" route="top_2" depart="301" />
    <vehicle id="vehicle_302" type="SUMO_DEFAULT_TYPE" route="top_3" depart="302" />
    <vehicle id="vehicle_303" type="SUMO_DEFAULT_TYPE" route="left_2" depart="303" />
    <vehicle id="vehicle_304" type="SUMO_DEFAULT_TYPE" route="left_1" depart="304" />
    <vehicle id="vehicle_305" type="SUMO_DEFAULT_TYPE" route="right_1" depart="305" />
    <vehicle id="vehicle_306" type="SUMO_DEFAULT_TYPE" route="right_1" depart="306" />
    <vehicle id="vehicle_307" type="SUMO_DEFAULT_TYPE" route="left_2" depart="307" />
    <vehicle id="vehicle_308" type="SUMO_DEFAULT_TYPE" route="right_2" depart="308" />
    <vehicle id="vehicle_309" type="SUMO_DEFAULT_TYPE" route="top_2" depart="309" />
    <vehicle id="vehicle_310" type="SUMO_DEFAULT_TYPE" route="down_2" depart="310" />
    <vehicle id="vehicle_311" type="SUMO_DEFAULT_TYPE" route="right_2" depart="311" />
    <vehicle id="vehicle_312" type="SUMO_DEFAULT_TYPE" route="right_2" depart="312" />
    <vehicle id="vehicle_313" type="SUMO_DEFAULT_TYPE" route="left_2" depart="313" />
    <vehicle id="vehicle_314" type="SUMO_DEFAULT_TYPE" route="left_3" depart="314" />
    <vehicle id="vehicle_315" type="SUMO_DEFAULT_TYPE" route="left_2" depart="315" />
    <vehicle id="vehicle_316" type="SUMO_DEFAULT_TYPE" route="top_3" depart="316" />
    <vehicle id="vehicle_317" type="SUMO_DEFAULT_TYPE" route="left_3" depart="317" />
    <vehicle id="vehicle_318" type="SUMO_DEFAULT_TYPE" route="left_1" depart="318" />
    <vehicle id="vehicle_319" type="SUMO_DEFAULT_TYPE" route="top_1" depart="319" />
    <vehicle id="vehicle_320" type="SUMO_DEFAULT_TYPE" route="left_3" depart="320" />
    <vehicle id="vehicle_321" type="SUMO_DEFAULT_TYPE" route="top_1" depart="321" />
    <vehicle id="vehicle_322" type="SUMO_DEFAULT_TYPE" route="top_2" depart="322" />
    <vehicle id="vehicle_323" type="SUMO_DEFAULT_TYPE" route="left_3" depart="323" />
    <vehicle id="vehicle_324" type="SUMO_DEFAULT_TYPE" route="top_2" depart="324" />
    <vehicle id="vehicle_325" type="SUMO_DEFAULT_TYPE" route="down_2" depart="325" />
    <vehicle id="vehicle_326" type="SUMO_DEFAULT_TYPE" route="top_3" depart="326" />
    <vehicle id="vehicle_327" type="SUMO_DEFAULT_TYPE" route="left_1" depart="327" />
    <vehicle id="vehicle_328" type="SUMO_DEFAULT_TYPE" route="down_1" depart="328" />
    <vehicle id="vehicle_329" type="SUMO_DEFAULT_TYPE" route="left_2" depart="329" />
    <vehicle id="vehicle_330" type="SUMO_DEFAULT_TYPE" route="right_2" depart="330" />
    <vehicle id="vehicle_331" type="SUMO_DEFAULT_TYPE" route="top_1" depart="331" />
    <vehicle id="vehicle_332" type="SUMO_DEFAULT_TYPE" route="top_1" depart="332" />
    <vehicle id="vehicle_333" type="SUMO_DEFAULT_TYPE" route="down_3" depart="333" />
    <vehicle id="vehicle_334" type="SUMO_DEFAULT_TYPE" route="left_3" depart="334" />
    <vehicle id="vehicle_335" type="SUMO_DEFAULT_TYPE" route="left_2" depart="335" />
    <vehicle id="vehicle_336" type="SUMO_DEFAULT_TYPE" route="right_3" depart="336" />
    <vehicle id="vehicle_337" type="SUMO_DEFAULT_TYPE" route="down_1" depart="337" />
    <vehicle id="vehicle_338" type="SUMO_DEFAULT_TYPE" route="down_1" depart="338" />