<configuration>
	<input>
	<net-file value="cross.net.xml"/>
	<route-files value="cross.rou.xml"/>
	<additional-files value="cross.det.xml"/>
	</input>
	<time>
	<begin value="0"/>
	<end value="2000"/>
	</time>
</configuration>